AeroDyn airfoil file.  Compatible with AeroDyn v13.0.
This file was generated automatically by bladeDES.
9           Number of airfoil tables in this file
0.03000  0.05000  0.06000  0.07500  0.10000  0.12500  0.15000  0.20000  0.25000           Table ID parameter (Reynolds number in millions)
6.18287  6.51909  6.72213  7.11107  5.24865  5.45143  6.36010  7.01501  7.96281           Stall angle (deg)
  0 0 0 0 0 0 0 0 0  useless empty line
  0 0 0 0 0 0 0 0 0  useless empty line
  0 0 0 0 0 0 0 0 0  useless empty line
  -3.24809  -3.82424  -3.92841  -4.08853  -3.27423  -3.52230  -4.41872  -4.38060  -4.38527            Zero lift angle of attack (deg)
  0.09758  0.09824  0.09851  0.09768  0.11265  0.10790  0.10037  0.09755  0.09401              Cn slope for zero lift (dimensionless)
  0.90528  0.99428  1.02857  1.07653  0.94321  0.94583  1.06113  1.08623  1.13845              Cn at stall value for positive angle of attack
  0.19972  -0.31425  -0.33194  0.07276  0.09451  0.33302  0.12450  0.04522  0.12956              Cn at stall value for negative angle of attack
  0.01745  0.03491  0.06981  0.05236  0.06981  0.03491  0.00000  0.00000  0.00000              Angle of attack for minimum CD (deg)
  0.08138  0.02615  0.01972  0.01407  0.01977  0.01437  0.01558  0.01105  0.00886              Minimum CD value
-180.000 0.0000 0.1055 0.0000 0.0762 0.0000 0.0537 0.0000 0.0424 0.0000 0.0345 0.0000 0.0345 0.0000 0.0466 0.0000 0.0558 0.0000 0.0272 
-178.214 0.0511 0.1065 0.0538 0.0772 0.0535 0.0548 0.0530 0.0435 0.0525 0.0356 0.0526 0.0355 0.0543 0.0477 0.0549 0.0569 0.0529 0.0283 
-176.429 0.1021 0.1096 0.1075 0.0804 0.1070 0.0580 0.1060 0.0467 0.1049 0.0388 0.1052 0.0387 0.1087 0.0508 0.1098 0.0600 0.1057 0.0315 
-174.643 0.1532 0.1148 0.1613 0.0856 0.1605 0.0632 0.1590 0.0520 0.1574 0.0441 0.1578 0.0441 0.1630 0.0561 0.1647 0.0653 0.1586 0.0368 
-172.857 0.2042 0.1220 0.2151 0.0929 0.2140 0.0706 0.2120 0.0594 0.2098 0.0515 0.2104 0.0515 0.2174 0.0635 0.2197 0.0726 0.2115 0.0442 
-171.071 0.2553 0.1311 0.2688 0.1022 0.2674 0.0800 0.2650 0.0688 0.2623 0.0610 0.2630 0.0610 0.2717 0.0729 0.2746 0.0820 0.2643 0.0538 
-169.286 0.3063 0.1423 0.3226 0.1135 0.3209 0.0914 0.3180 0.0803 0.3148 0.0725 0.3156 0.0725 0.3261 0.0844 0.3295 0.0934 0.3172 0.0653 
-167.500 0.3574 0.1553 0.3763 0.1267 0.3744 0.1048 0.3709 0.0937 0.3672 0.0860 0.3682 0.0860 0.3804 0.0978 0.3844 0.1068 0.3701 0.0789 
-165.714 0.4084 0.1703 0.4301 0.1419 0.4279 0.1201 0.4239 0.1091 0.4197 0.1015 0.4209 0.1014 0.4347 0.1132 0.4393 0.1221 0.4229 0.0944 
-163.929 0.4595 0.1870 0.4839 0.1588 0.4814 0.1372 0.4769 0.1264 0.4721 0.1188 0.4735 0.1187 0.4891 0.1304 0.4942 0.1392 0.4758 0.1117 
-162.143 0.5105 0.2055 0.5376 0.1776 0.5349 0.1562 0.5299 0.1454 0.5246 0.1379 0.5261 0.1378 0.5434 0.1494 0.5491 0.1581 0.5287 0.1309 
-160.357 0.5616 0.2256 0.5914 0.1980 0.5884 0.1768 0.5829 0.1662 0.5771 0.1587 0.5787 0.1587 0.5978 0.1701 0.6041 0.1788 0.5815 0.1518 
-158.571 0.6126 0.2473 0.6452 0.2200 0.6419 0.1991 0.6359 0.1886 0.6295 0.1812 0.6313 0.1812 0.6521 0.1925 0.6590 0.2010 0.6344 0.1744 
-156.786 0.6637 0.2705 0.6989 0.2436 0.6954 0.2229 0.6889 0.2125 0.6820 0.2053 0.6839 0.2052 0.7065 0.2164 0.7139 0.2248 0.6873 0.1985 
-155.000 0.7147 0.2951 0.7527 0.2686 0.7489 0.2482 0.7419 0.2379 0.7345 0.2308 0.7365 0.2307 0.7608 0.2417 0.7688 0.2501 0.7401 0.2241 
-150.357 0.6624 0.3649 0.6922 0.3395 0.6892 0.3199 0.6838 0.3101 0.6779 0.3032 0.6795 0.3032 0.6986 0.3137 0.7049 0.3217 0.6824 0.2969 
-145.714 0.6228 0.4416 0.6465 0.4174 0.6441 0.3988 0.6398 0.3895 0.6351 0.3829 0.6364 0.3829 0.6516 0.3929 0.6565 0.4005 0.6387 0.3769 
-141.071 0.5880 0.5231 0.6068 0.5003 0.6049 0.4828 0.6014 0.4740 0.5977 0.4678 0.5987 0.4678 0.6108 0.4772 0.6148 0.4844 0.6005 0.4621 
-136.429 0.5532 0.6071 0.5680 0.5858 0.5665 0.5696 0.5638 0.5614 0.5609 0.5556 0.5617 0.5556 0.5712 0.5644 0.5743 0.5711 0.5631 0.5503 
-131.786 0.5157 0.6913 0.5273 0.6718 0.5262 0.6568 0.5240 0.6493 0.5217 0.6440 0.5224 0.6440 0.5298 0.6521 0.5323 0.6582 0.5235 0.6391 
-127.143 0.4740 0.7734 0.4830 0.7557 0.4821 0.7422 0.4804 0.7353 0.4787 0.7306 0.4792 0.7305 0.4849 0.7379 0.4868 0.7434 0.4800 0.7261 
-122.500 0.4274 0.8512 0.4341 0.8354 0.4334 0.8234 0.4322 0.8173 0.4309 0.8130 0.4313 0.8130 0.4356 0.8195 0.4370 0.8245 0.4319 0.8091 
-117.857 0.3758 0.9224 0.3806 0.9087 0.3801 0.8982 0.3792 0.8929 0.3783 0.8892 0.3785 0.8892 0.3816 0.8948 0.3826 0.8991 0.3790 0.8858 
-113.214 0.3194 0.9850 0.3227 0.9734 0.3223 0.9646 0.3217 0.9601 0.3211 0.9570 0.3212 0.9570 0.3234 0.9618 0.3241 0.9654 0.3216 0.9541 
-108.571 0.2589 1.0372 0.2610 1.0279 0.2608 1.0208 0.2604 1.0172 0.2600 1.0146 0.2601 1.0146 0.2614 1.0185 0.2619 1.0214 0.2603 1.0123 
-103.929 0.1954 1.0776 0.1966 1.0706 0.1965 1.0652 0.1963 1.0624 0.1960 1.0605 0.1961 1.0605 0.1968 1.0634 0.1971 1.0656 0.1962 1.0588 
-99.286 0.1301 1.1049 0.1307 1.1002 0.1306 1.0965 0.1305 1.0947 0.1304 1.0934 0.1304 1.0934 0.1308 1.0954 0.1309 1.0969 0.1305 1.0922 
-94.643 0.0645 1.1182 0.0646 1.1158 0.0646 1.1140 0.0646 1.1131 0.0646 1.1124 0.0646 1.1124 0.0646 1.1134 0.0647 1.1141 0.0646 1.1118 
-90.000 0.0000 1.1169 0.0000 1.1169 0.0000 1.1169 0.0000 1.1169 0.0000 1.1169 0.0000 1.1169 0.0000 1.1169 0.0000 1.1169 0.0000 1.1169 
-85.357 -0.0645 1.1182 -0.0646 1.1158 -0.0646 1.1140 -0.0646 1.1131 -0.0646 1.1124 -0.0646 1.1124 -0.0646 1.1134 -0.0647 1.1141 -0.0646 1.1118 
-80.714 -0.1301 1.1049 -0.1307 1.1002 -0.1306 1.0965 -0.1305 1.0947 -0.1304 1.0934 -0.1304 1.0934 -0.1308 1.0954 -0.1309 1.0969 -0.1305 1.0922 
-76.071 -0.1954 1.0776 -0.1966 1.0706 -0.1965 1.0652 -0.1963 1.0624 -0.1960 1.0605 -0.1961 1.0605 -0.1968 1.0634 -0.1971 1.0656 -0.1962 1.0588 
-71.429 -0.2589 1.0372 -0.2610 1.0279 -0.2608 1.0208 -0.2604 1.0172 -0.2600 1.0146 -0.2601 1.0146 -0.2614 1.0185 -0.2619 1.0214 -0.2603 1.0123 
-66.786 -0.3194 0.9850 -0.3227 0.9734 -0.3223 0.9646 -0.3217 0.9601 -0.3211 0.9570 -0.3212 0.9570 -0.3234 0.9618 -0.3241 0.9654 -0.3216 0.9541 
-62.143 -0.3758 0.9224 -0.3806 0.9087 -0.3801 0.8982 -0.3792 0.8929 -0.3783 0.8892 -0.3785 0.8892 -0.3816 0.8948 -0.3826 0.8991 -0.3790 0.8858 
-57.500 -0.4274 0.8512 -0.4341 0.8354 -0.4334 0.8234 -0.4322 0.8173 -0.4309 0.8130 -0.4313 0.8130 -0.4356 0.8195 -0.4370 0.8245 -0.4319 0.8091 
-52.857 -0.4740 0.7734 -0.4830 0.7557 -0.4821 0.7422 -0.4804 0.7353 -0.4787 0.7306 -0.4792 0.7305 -0.4849 0.7379 -0.4868 0.7434 -0.4800 0.7261 
-48.214 -0.5157 0.6913 -0.5273 0.6718 -0.5262 0.6568 -0.5240 0.6493 -0.5217 0.6440 -0.5224 0.6440 -0.5298 0.6521 -0.5323 0.6582 -0.5235 0.6391 
-43.571 -0.5532 0.6071 -0.5680 0.5858 -0.5665 0.5696 -0.5638 0.5614 -0.5609 0.5556 -0.5617 0.5556 -0.5712 0.5644 -0.5743 0.5711 -0.5631 0.5503 
-38.929 -0.5880 0.5231 -0.6068 0.5003 -0.6049 0.4828 -0.6014 0.4740 -0.5977 0.4678 -0.5987 0.4678 -0.6108 0.4772 -0.6148 0.4844 -0.6005 0.4621 
-34.286 -0.6228 0.4416 -0.6465 0.4174 -0.6441 0.3988 -0.6398 0.3895 -0.6351 0.3829 -0.6364 0.3829 -0.6516 0.3929 -0.6565 0.4005 -0.6387 0.3769 
-29.643 -0.6624 0.3649 -0.6922 0.3395 -0.6892 0.3199 -0.6838 0.3101 -0.6779 0.3032 -0.6795 0.3032 -0.6986 0.3137 -0.7049 0.3217 -0.6824 0.2969 
-25.000 -0.7147 0.2951 -0.7527 0.2686 -0.7489 0.2482 -0.7419 0.2379 -0.7345 0.2308 -0.7365 0.2307 -0.7608 0.2417 -0.7688 0.2501 -0.7401 0.2241 
-23.929 -0.6766 0.2873 -0.7152 0.2597 -0.7128 0.2404 -0.7065 0.2309 -0.7003 0.2235 -0.7022 0.2234 -0.7259 0.2336 -0.7343 0.2414 -0.7080 0.2175 
-22.857 -0.6385 0.2794 -0.6777 0.2509 -0.6768 0.2327 -0.6710 0.2238 -0.6662 0.2163 -0.6679 0.2161 -0.6910 0.2255 -0.6998 0.2327 -0.6759 0.2109 
-21.786 -0.6004 0.2716 -0.6402 0.2420 -0.6408 0.2249 -0.6356 0.2167 -0.6321 0.2090 -0.6337 0.2087 -0.6561 0.2173 -0.6653 0.2240 -0.6438 0.2043 
-20.714 -0.5623 0.2637 -0.6027 0.2332 -0.6047 0.2172 -0.6002 0.2096 -0.5979 0.2017 -0.5994 0.2014 -0.6212 0.2092 -0.6308 0.2153 -0.6117 0.1977 
-19.643 -0.5242 0.2559 -0.5652 0.2243 -0.5687 0.2095 -0.5647 0.2026 -0.5638 0.1945 -0.5651 0.1940 -0.5862 0.2011 -0.5963 0.2066 -0.5796 0.1911 
-18.571 -0.4861 0.2480 -0.5277 0.2155 -0.5327 0.2017 -0.5293 0.1955 -0.5297 0.1872 -0.5308 0.1867 -0.5513 0.1929 -0.5618 0.1979 -0.5475 0.1845 
-17.500 -0.4480 0.2401 -0.4902 0.2067 -0.4967 0.1940 -0.4939 0.1884 -0.4956 0.1800 -0.4966 0.1793 -0.5164 0.1848 -0.5273 0.1892 -0.5154 0.1778 
-16.429 -0.4099 0.2323 -0.4527 0.1978 -0.4606 0.1862 -0.4585 0.1813 -0.4614 0.1727 -0.4623 0.1720 -0.4815 0.1767 -0.4928 0.1805 -0.4833 0.1712 
-15.357 -0.3718 0.2244 -0.4152 0.1890 -0.4246 0.1785 -0.4230 0.1742 -0.4273 0.1655 -0.4280 0.1646 -0.4466 0.1686 -0.4583 0.1718 -0.4512 0.1646 
-14.286 -0.3337 0.2166 -0.3777 0.1801 -0.3886 0.1707 -0.3876 0.1672 -0.3932 0.1582 -0.3937 0.1573 -0.4117 0.1604 -0.4238 0.1631 -0.4191 0.1580 
-13.214 -0.2956 0.2087 -0.3402 0.1713 -0.3525 0.1630 -0.3522 0.1601 -0.3590 0.1510 -0.3595 0.1499 -0.3768 0.1523 -0.3893 0.1544 -0.3870 0.1514 
-12.143 -0.2575 0.2009 -0.3027 0.1624 -0.3165 0.1552 -0.3167 0.1530 -0.3249 0.1437 -0.3252 0.1426 -0.3418 0.1442 -0.3548 0.1457 -0.3549 0.1448 
-10.000 -0.1246 0.1680 -0.1840 0.1315 -0.2038 0.1274 -0.2075 0.1272 -0.2076 0.1143 -0.2160 0.1156 -0.2457 0.1200 -0.2586 0.1201 -0.2608 0.1225 
-8.000 -0.2026 0.1631 -0.2460 0.1212 -0.2728 0.1117 -0.2663 0.1101 -0.2931 0.0992 -0.3059 0.1017 -0.3504 0.1055 -0.3610 0.1086 -0.3696 0.1102 
-6.000 -0.2759 0.1398 -0.2613 0.0799 -0.2688 0.0736 -0.2766 0.0711 -0.3818 0.0823 -0.4047 0.0840 -0.3766 0.0816 -0.3425 0.0760 -0.3023 0.0701 
-4.000 -0.0812 0.0974 -0.0330 0.0444 -0.0220 0.0385 -0.0048 0.0304 -0.1185 0.0346 -0.1053 0.0310 -0.0006 0.0264 0.0099 0.0235 0.0316 0.0173 
-2.000 0.1003 0.0855 0.1760 0.0302 0.1900 0.0242 0.2080 0.0171 0.1401 0.0230 0.1780 0.0181 0.2738 0.0174 0.2540 0.0136 0.2281 0.0111 
0.000 0.3381 0.0824 0.3937 0.0272 0.4037 0.0210 0.4113 0.0144 0.3997 0.0213 0.4234 0.0150 0.4616 0.0156 0.4372 0.0111 0.4121 0.0089 
1.000 0.4404 0.0814 0.4916 0.0269 0.4987 0.0206 0.5060 0.0142 0.5135 0.0211 0.5213 0.0147 0.5593 0.0163 0.5339 0.0118 0.5086 0.0093 
2.000 0.5340 0.0836 0.5840 0.0262 0.5922 0.0204 0.6008 0.0141 0.6235 0.0206 0.6190 0.0144 0.6570 0.0170 0.6307 0.0126 0.6051 0.0098 
3.000 0.6186 0.0863 0.6730 0.0265 0.6851 0.0199 0.6954 0.0141 0.7175 0.0199 0.7072 0.0149 0.7472 0.0175 0.7228 0.0132 0.6976 0.0104 
4.000 0.6913 0.0858 0.7623 0.0276 0.7780 0.0197 0.7881 0.0141 0.8063 0.0198 0.7952 0.0153 0.8374 0.0179 0.8148 0.0138 0.7899 0.0109 
5.000 0.7654 0.0855 0.8456 0.0278 0.8617 0.0204 0.8751 0.0142 0.8871 0.0203 0.8780 0.0164 0.9205 0.0193 0.8989 0.0150 0.8767 0.0120 
6.000 0.8493 0.0851 0.9245 0.0308 0.9446 0.0222 0.9599 0.0148 0.9666 0.0212 0.9605 0.0176 1.0035 0.0206 0.9827 0.0162 0.9631 0.0130 
7.000 0.9096 0.0909 0.9987 0.0340 1.0182 0.0247 1.0374 0.0162 1.0397 0.0244 1.0358 0.0197 1.0770 0.0223 1.0606 0.0178 1.0429 0.0148 
8.000 0.9175 0.1264 1.0641 0.0353 1.0835 0.0263 1.1018 0.0170 1.1047 0.0283 1.1028 0.0225 1.1446 0.0252 1.1319 0.0203 1.1165 0.0169 
9.000 0.9104 0.1483 1.1104 0.0412 1.1327 0.0315 1.1580 0.0235 1.1616 0.0319 1.1609 0.0255 1.2017 0.0285 1.1936 0.0233 1.1792 0.0193 
10.000 0.8549 0.1766 1.1470 0.0509 1.1845 0.0391 1.2340 0.0276 1.2044 0.0377 1.2071 0.0289 1.2364 0.0322 1.2357 0.0259 1.2238 0.0216 
11.000 0.8677 0.1643 1.2036 0.0540 1.2534 0.0597 1.2763 0.0520 1.2127 0.0446 1.2085 0.0386 1.2267 0.0397 1.2268 0.0283 1.2276 0.0259 
12.000 0.6524 0.2079 1.2469 0.0852 1.2636 0.0799 1.2660 0.0773 0.9639 0.1320 0.9643 0.1267 0.9544 0.1351 1.1548 0.0475 1.1481 0.0593 
13.000 0.5969 0.2110 0.9489 0.1453 0.8777 0.1834 0.7644 0.2233 0.8607 0.1288 0.9118 0.1378 0.8943 0.1599 0.9758 0.1350 0.9882 0.1245 
14.000 0.5414 0.2523 0.6471 0.1950 0.7170 0.2199 0.7671 0.2088 0.7145 0.2334 0.8422 0.1645 0.8446 0.1854 0.8829 0.1870 0.8865 0.1499 
15.000 0.5642 0.2589 0.6159 0.2402 0.6654 0.2558 0.6890 0.2477 0.7042 0.2434 0.7744 0.1849 0.8219 0.2044 0.8583 0.1940 0.8783 0.1293 
16.000 0.5973 0.2588 0.6542 0.2529 0.6696 0.2568 0.6768 0.2527 0.6811 0.2474 0.6833 0.2401 0.7714 0.2450 0.7989 0.2081 0.8171 0.1513 
18.000 0.6700 0.2888 0.7537 0.2677 0.7393 0.2677 0.7224 0.2709 0.7038 0.2730 0.7005 0.2618 0.7596 0.2574 0.8326 0.2315 0.7625 0.2048 
20.000 0.7178 0.2959 0.7810 0.2889 0.7773 0.2876 0.7534 0.2798 0.7366 0.2721 0.7246 0.2638 0.7367 0.2362 0.7397 0.2280 0.7611 0.2169 
25.000 0.8582 0.2417 0.9128 0.2153 0.9058 0.1944 0.8950 0.1839 0.8767 0.1742 0.8820 0.1749 0.9216 0.1875 0.9368 0.1971 0.8942 0.1706 
29.643 0.7640 0.2883 0.8059 0.2625 0.8004 0.2425 0.7919 0.2324 0.7779 0.2231 0.7818 0.2238 0.8121 0.2356 0.8241 0.2448 0.7912 0.2197 
34.286 0.6999 0.3430 0.7325 0.3182 0.7281 0.2991 0.7214 0.2895 0.7106 0.2808 0.7134 0.2813 0.7369 0.2923 0.7464 0.3011 0.7208 0.2774 
38.929 0.6517 0.4051 0.6772 0.3814 0.6737 0.3634 0.6684 0.3544 0.6601 0.3463 0.6622 0.3467 0.6804 0.3567 0.6879 0.3651 0.6679 0.3430 
43.571 0.6110 0.4734 0.6308 0.4511 0.6281 0.4343 0.6239 0.4259 0.6176 0.4186 0.6191 0.4188 0.6331 0.4279 0.6390 0.4357 0.6234 0.4152 
48.214 0.5722 0.5465 0.5875 0.5257 0.5853 0.5103 0.5821 0.5026 0.5774 0.4961 0.5784 0.4962 0.5891 0.5042 0.5937 0.5114 0.5817 0.4928 
52.857 0.5318 0.6228 0.5434 0.6039 0.5417 0.5899 0.5392 0.5829 0.5358 0.5772 0.5365 0.5772 0.5444 0.5842 0.5480 0.5907 0.5388 0.5739 
57.500 0.4873 0.7008 0.4959 0.6838 0.4946 0.6714 0.4927 0.6651 0.4904 0.6604 0.4908 0.6602 0.4965 0.6662 0.4992 0.6720 0.4924 0.6571 
62.143 0.4373 0.7787 0.4434 0.7638 0.4425 0.7530 0.4411 0.7476 0.4396 0.7437 0.4398 0.7434 0.4438 0.7484 0.4457 0.7534 0.4409 0.7405 
66.786 0.3808 0.8547 0.3850 0.8422 0.3844 0.8331 0.3834 0.8285 0.3825 0.8254 0.3826 0.8250 0.3852 0.8291 0.3865 0.8333 0.3832 0.8225 
71.429 0.3176 0.9272 0.3202 0.9170 0.3198 0.9097 0.3192 0.9060 0.3187 0.9037 0.3187 0.9033 0.3203 0.9065 0.3211 0.9098 0.3190 0.9011 
76.071 0.2475 0.9940 0.2489 0.9863 0.2487 0.9808 0.2483 0.9780 0.2481 0.9764 0.2481 0.9760 0.2489 0.9784 0.2494 0.9809 0.2482 0.9743 
80.714 0.1708 1.0526 0.1714 1.0475 0.1713 1.0438 0.1712 1.0419 0.1711 1.0409 0.1711 1.0406 0.1714 1.0422 0.1716 1.0438 0.1711 1.0394 
85.357 0.0881 1.0983 0.0882 1.0958 0.0882 1.0939 0.0882 1.0930 0.0882 1.0925 0.0882 1.0924 0.0882 1.0932 0.0883 1.0940 0.0882 1.0917 
90.000 0.0000 1.1169 0.0000 1.1169 0.0000 1.1169 0.0000 1.1169 0.0000 1.1169 0.0000 1.1169 0.0000 1.1169 0.0000 1.1169 0.0000 1.1169 
94.643 -0.0645 1.1182 -0.0646 1.1158 -0.0646 1.1140 -0.0646 1.1131 -0.0646 1.1124 -0.0646 1.1124 -0.0646 1.1134 -0.0647 1.1141 -0.0646 1.1118 
99.286 -0.1301 1.1049 -0.1307 1.1002 -0.1306 1.0965 -0.1305 1.0947 -0.1304 1.0934 -0.1304 1.0934 -0.1308 1.0954 -0.1309 1.0969 -0.1305 1.0922 
103.929 -0.1954 1.0776 -0.1966 1.0706 -0.1965 1.0652 -0.1963 1.0624 -0.1960 1.0605 -0.1961 1.0605 -0.1968 1.0634 -0.1971 1.0656 -0.1962 1.0588 
108.571 -0.2589 1.0372 -0.2610 1.0279 -0.2608 1.0208 -0.2604 1.0172 -0.2600 1.0146 -0.2601 1.0146 -0.2614 1.0185 -0.2619 1.0214 -0.2603 1.0123 
113.214 -0.3194 0.9850 -0.3227 0.9734 -0.3223 0.9646 -0.3217 0.9601 -0.3211 0.9570 -0.3212 0.9570 -0.3234 0.9618 -0.3241 0.9654 -0.3216 0.9541 
117.857 -0.3758 0.9224 -0.3806 0.9087 -0.3801 0.8982 -0.3792 0.8929 -0.3783 0.8892 -0.3785 0.8892 -0.3816 0.8948 -0.3826 0.8991 -0.3790 0.8858 
122.500 -0.4274 0.8512 -0.4341 0.8354 -0.4334 0.8234 -0.4322 0.8173 -0.4309 0.8130 -0.4313 0.8130 -0.4356 0.8195 -0.4370 0.8245 -0.4319 0.8091 
127.143 -0.4740 0.7734 -0.4830 0.7557 -0.4821 0.7422 -0.4804 0.7353 -0.4787 0.7306 -0.4792 0.7305 -0.4849 0.7379 -0.4868 0.7434 -0.4800 0.7261 
131.786 -0.5157 0.6913 -0.5273 0.6718 -0.5262 0.6568 -0.5240 0.6493 -0.5217 0.6440 -0.5224 0.6440 -0.5298 0.6521 -0.5323 0.6582 -0.5235 0.6391 
136.429 -0.5532 0.6071 -0.5680 0.5858 -0.5665 0.5696 -0.5638 0.5614 -0.5609 0.5556 -0.5617 0.5556 -0.5712 0.5644 -0.5743 0.5711 -0.5631 0.5503 
141.071 -0.5880 0.5231 -0.6068 0.5003 -0.6049 0.4828 -0.6014 0.4740 -0.5977 0.4678 -0.5987 0.4678 -0.6108 0.4772 -0.6148 0.4844 -0.6005 0.4621 
145.714 -0.6228 0.4416 -0.6465 0.4174 -0.6441 0.3988 -0.6398 0.3895 -0.6351 0.3829 -0.6364 0.3829 -0.6516 0.3929 -0.6565 0.4005 -0.6387 0.3769 
150.357 -0.6624 0.3649 -0.6922 0.3395 -0.6892 0.3199 -0.6838 0.3101 -0.6779 0.3032 -0.6795 0.3032 -0.6986 0.3137 -0.7049 0.3217 -0.6824 0.2969 
155.000 -0.7147 0.2951 -0.7527 0.2686 -0.7489 0.2482 -0.7419 0.2379 -0.7345 0.2308 -0.7365 0.2307 -0.7608 0.2417 -0.7688 0.2501 -0.7401 0.2241 
156.786 -0.6637 0.2705 -0.6989 0.2436 -0.6954 0.2229 -0.6889 0.2125 -0.6820 0.2053 -0.6839 0.2052 -0.7065 0.2164 -0.7139 0.2248 -0.6873 0.1985 
158.571 -0.6126 0.2473 -0.6452 0.2200 -0.6419 0.1991 -0.6359 0.1886 -0.6295 0.1812 -0.6313 0.1812 -0.6521 0.1925 -0.6590 0.2010 -0.6344 0.1744 
160.357 -0.5616 0.2256 -0.5914 0.1980 -0.5884 0.1768 -0.5829 0.1662 -0.5771 0.1587 -0.5787 0.1587 -0.5978 0.1701 -0.6041 0.1788 -0.5815 0.1518 
162.143 -0.5105 0.2055 -0.5376 0.1776 -0.5349 0.1562 -0.5299 0.1454 -0.5246 0.1379 -0.5261 0.1378 -0.5434 0.1494 -0.5491 0.1581 -0.5287 0.1309 
163.929 -0.4595 0.1870 -0.4839 0.1588 -0.4814 0.1372 -0.4769 0.1264 -0.4721 0.1188 -0.4735 0.1187 -0.4891 0.1304 -0.4942 0.1392 -0.4758 0.1117 
165.714 -0.4084 0.1703 -0.4301 0.1419 -0.4279 0.1201 -0.4239 0.1091 -0.4197 0.1015 -0.4209 0.1014 -0.4347 0.1132 -0.4393 0.1221 -0.4229 0.0944 
167.500 -0.3574 0.1553 -0.3763 0.1267 -0.3744 0.1048 -0.3709 0.0937 -0.3672 0.0860 -0.3682 0.0860 -0.3804 0.0978 -0.3844 0.1068 -0.3701 0.0789 
169.286 -0.3063 0.1423 -0.3226 0.1135 -0.3209 0.0914 -0.3180 0.0803 -0.3148 0.0725 -0.3156 0.0725 -0.3261 0.0844 -0.3295 0.0934 -0.3172 0.0653 
171.071 -0.2553 0.1311 -0.2688 0.1022 -0.2674 0.0800 -0.2650 0.0688 -0.2623 0.0610 -0.2630 0.0610 -0.2717 0.0729 -0.2746 0.0820 -0.2643 0.0538 
172.857 -0.2042 0.1220 -0.2151 0.0929 -0.2140 0.0706 -0.2120 0.0594 -0.2098 0.0515 -0.2104 0.0515 -0.2174 0.0635 -0.2197 0.0726 -0.2115 0.0442 
174.643 -0.1532 0.1148 -0.1613 0.0856 -0.1605 0.0632 -0.1590 0.0520 -0.1574 0.0441 -0.1578 0.0441 -0.1630 0.0561 -0.1647 0.0653 -0.1586 0.0368 
176.429 -0.1021 0.1096 -0.1075 0.0804 -0.1070 0.0580 -0.1060 0.0467 -0.1049 0.0388 -0.1052 0.0387 -0.1087 0.0508 -0.1098 0.0600 -0.1057 0.0315 
178.214 -0.0511 0.1065 -0.0538 0.0772 -0.0535 0.0548 -0.0530 0.0435 -0.0525 0.0356 -0.0526 0.0355 -0.0543 0.0477 -0.0549 0.0569 -0.0529 0.0283 
180.000 0.0000 0.1055 0.0000 0.0762 0.0000 0.0537 0.0000 0.0424 0.0000 0.0345 0.0000 0.0345 0.0000 0.0466 0.0000 0.0558 0.0000 0.0272 
